&aerosol_nl
 seasalt_emis_scale		=                           1.35 
 sscav_tuning		= .false.
/
&cam_history_nl
 avgflag_pertape		= 'A','I','A'
 empty_htapes		= .TRUE.
 fincl1		= 'U','V','T','Z3','SO2','ASH','SULFATE','SAI_HEAT','SAI_COOL','AIR_MASS'
 fincl2		= 'U','V','T','Z3','SO2','ASH','SULFATE','SAI_HEAT','SAI_COOL','AIR_MASS'
 fincl3		= 'U','V','T','Z3','SO2','ASH','SULFATE','SAI_HEAT','SAI_COOL','AIR_MASS'
 inithist		= 'ENDOFRUN'
 mfilt		= 360,360,360
 ndens		= 2,2
 nhtfrq		= -6,-6,-48
/
&cam_inparm
 bnd_topo		= '/global/cfs/cdirs/e3sm/inputdata/atm/cam/topo/USGS-gtopo30_ne16np4pg2_16xdel2_20200527.nc'
 dtime		= 1800
 ncdata		= "/global/cscratch1/sd/jhollo/E3SM/E3SMv2_cases/hsw_validate_cases/E3SM_ne16_L72_FIDEAL_10year_spinup_withNewTeq/run/E3SM_ne16_L72_FIDEAL_10year_spinup_withNewTeq.eam.i.0005-01-01-00000.nc.newcoordnames"
 pertlim		= 0
 phys_chnk_fdim_max		=  30 
 phys_chnk_fdim_mult		=  2 
 phys_loadbalance		=  2 
 raytau0		=                      0.0    
/
&chem_surfvals_nl
 ch4vmr		= 1760.0e-9
 co2vmr		= 367.000000e-6
 f11vmr		= 653.45e-12
 f12vmr		= 535.0e-12
 n2ovmr		= 316.0e-9
/
&cldera_sai_tracers_nl
 cldera_sai_dtstrat		=  0.35 
 cldera_sai_dtsurf		=  -0.012 
 cldera_sai_formsulfate		= .true.
 cldera_sai_lat0		=  15.15 
 cldera_sai_lon0		=  120.35 
 cldera_sai_mash		=  50.0 
 cldera_sai_mso2		=  17.0 
 cldera_sai_qstar		= 0.7e-7
 cldera_sai_read_from_ic_file		= .false.
 cldera_sai_rkash		=  1.0 
 cldera_sai_rkso2		=  25.0 
 cldera_sai_rksulf		=  360.0 
 cldera_sai_stratheating		= .true.
 cldera_sai_surfcooling		= .true.
 cldera_sai_taustar		= 1e6
 cldera_sai_tf		=  9.0 
 cldera_sai_tracers_flag		= .true.
 cldera_sai_w		=  2.04 
 cldera_sai_zaod		=  5.0 
/
&cldfrc2m_nl
 cldfrc2m_rhmaxi		=   1.1D0  
 cldfrc2m_rhmini		=   0.80D0  
/
&cldfrc_nl
 cldfrc_dp1		=  0.14D0 
 cldfrc_dp2		=  500.0D0 
 cldfrc_freeze_dry		= .true.
 cldfrc_ice		= .false.
 cldfrc_icecrit		=  0.95D0 
 cldfrc_iceopt		=  1 
 cldfrc_premib		=  750.0D2 
 cldfrc_premit		=  25000.0D0 
 cldfrc_rhminh		=  0.800D0 
 cldfrc_rhminl		=  0.900D0 
 cldfrc_rhminl_adj_land		=  0.100D0 
 cldfrc_sh1		=  0.04D0 
 cldfrc_sh2		=  500.0D0 
/
&cldsed_nl
 cldsed_ice_stokes_fac		=  1.0D0 
/
&cldwat_nl
 cldwat_conke		=   5.0e-6  
 cldwat_icritc		=  18.0e-6  
 cldwat_icritw		=   2.0e-4  
 cldwat_r3lcrit		=   10.0e-6  
/
&ctl_nl
 cubed_sphere_map		=  2 
 dt_remap_factor		=  3    
 dt_tracer_factor		=  3    
 hypervis_order		=      2 
 hypervis_scaling		=  3.0 
 hypervis_subcycle		=  1 
 hypervis_subcycle_q		=  3    
 hypervis_subcycle_tom		=  1 
 integration		= "explicit"
 mesh_file		= '/dev/null'
 nu		=                    3.4e-8 
 nu_div		=  -1.0 
 nu_p		=  -1.0 
 nu_q		=  -1.0 
 nu_s		=  -1.0 
 nu_top		=  2.5e5 
 qsplit		=  -1 
 rsplit		=  -1 
 se_ftype		=  2 
 se_limiter_option		=  9 
 se_ne		= 16
 se_nsplit		=  -1 
 se_partmethod		=  4 
 se_topology		= "cube"
 se_tstep		=                   600 
 statefreq		=  480 
 theta_advect_form		=  1 
 theta_hydrostatic_mode		= .true.
 transport_alg		=  12 
 tstep_type		=  5 
 vert_remap_q_alg		=  10 
 vthreads		=  1 
/
&gw_drag_nl
 effgw_beres		= 0.1D0
 effgw_cm		= 1.D0
 effgw_oro		= 0.125D0
 fcrit2		= 1.0
 frontgfc		= 1.25D-15
 gw_convect_hcf		=  10.0       
 gw_dc		= 2.5D0
 gw_drag_file		= '/global/cfs/cdirs/e3sm/inputdata/atm/waccm/gw/newmfspectra40_dc25.nc'
 pgwv		= 32
 tau_0_ubc		= .true.
 taubgnd		= 1.5D-3
/
&hetfrz_classnuc_nl
 hist_hetfrz_classnuc		= .false.
/
&linoz_nl
 linoz_psc_t		=  197.5      
/
&micro_mg_nl
 microp_uniform		= .false.
/
&microp_aero_nl
 microp_aero_wsub_scheme		= 1
 microp_aero_wsubmin		=  0.001D0    
/
&nucleate_ice_nl
 use_preexisting_ice		= .false.
/
&phys_ctl_nl
 cam_chempkg		= 'none'
 cam_physpkg		= 'ideal'
 conv_water_in_rad		=  0 
 convproc_do_aer		= .false.
 convproc_do_gas		= .false.
 convproc_method_activate		= 2
 crm_accel_factor		= 0
 crm_accel_uv		= .false.
 deep_scheme		= 'ZM'
 demott_ice_nuc		= .false.
 do_aerocom_ind3		=  .false. 
 do_clubb_sgs		=  .false. 
 do_tms		=  .false. 
 eddy_scheme		= 'HB'
 export_gustiness		= .false.
 fix_g1_err_ndrop		=              .false.  
 history_aero_optics		=           .false.  
 history_aerosol		=               .false.  
 history_amwg		=                  .true.   
 history_budget		=                .false.  
 history_clubb		=       .false.   
 history_eddy		=                  .false.  
 history_vdiag		=                 .false.  
 history_verbose		=               .false.  
 history_waccm		=                 .false.  
 ideal_phys_analytic_ic		= .false.
 ideal_phys_option		= 'held-suarez-williamson'
 ieflx_opt		= 0
 linearize_pbl_winds		= .false.
 liqcf_fix		= .false.
 macrop_scheme		= 'none'
 mam_amicphys_optaa		= 0
 micro_do_icesupersat		=  .false. 
 microp_scheme		= 'RK'
 mmf_microphysics_scheme		= 'sam1mom'
 mmf_orientation_angle		=  90.0 
 mmf_vt_wn_max		=  0      
 n_so4_monolayers_pcage		=  3.0D0 
 radiation_scheme		= 'rrtmg'
 regen_fix		= .false.
 resus_fix		= .false.
 shallow_scheme		= 'Hack'
 srf_flux_avg		= 0
 ssalt_tuning		= .false.
 use_crm_accel		= .false.
 use_ecpp		=  .false.
 use_gw_convect		= .true.
 use_gw_energy_fix		= .true.
 use_gw_front		= .true.
 use_gw_oro		= .true.
 use_hetfrz_classnuc		= .false.
 use_mmf		=  .false.
 use_mmf_vt		=  .false.
 use_subcol_microp		= .false.
 waccmx_opt		= 'off'
/
&prescribed_ozone_nl
 prescribed_ozone_cycle_yr		= 2000
 prescribed_ozone_datapath		= '/global/cfs/cdirs/e3sm/inputdata/atm/cam/ozone'
 prescribed_ozone_file		= 'ozone_1.9x2.5_L26_2000clim_c091112.nc'
 prescribed_ozone_name		= 'O3'
 prescribed_ozone_type		= 'CYCLICAL'
/
&radiation_nl
 use_rad_dt_cosz		=              .false.  
/
&ref_pres_nl
 do_molec_press		=  0.1D0 
 molec_diff_bot_press		=  50.D0 
 trop_cloud_top_press		=       1.D2 
/
&solar_inparm
 solar_const		= 1361.27
 solar_htng_spctrl_scl		= .false.
/
&spmd_dyn_inparm
 dyn_npes		= 1536
/
&subcol_nl
 subcol_scheme		= 'off'
/
&tropopause_nl
 tropopause_climo_file		= '/global/cfs/cdirs/e3sm/inputdata/atm/cam/chem/trop_mozart/ub/clim_p_trop.nc'
/
&vert_diff_nl
 diff_cnsrv_mass_check		=  .false. 
 do_iss		=  .false. 
 eddy_lbulk_max		= 40.D3
 eddy_leng_max		= 40.D3
 eddy_max_bot_pressure		= 100.D3
 eddy_moist_entrain_a2l		= 30.D0
 kv_freetrop_scale		= 1.D0
 kv_top_pressure		= 0.D0
 kv_top_scale		= 1.D0
/
&zmconv_nl
 zmconv_alfa		=  0.1
 zmconv_c0_lnd		=  0.0030D0 
 zmconv_c0_ocn		=  0.0030D0 
 zmconv_cape_cin		= 5       
 zmconv_dmpdz		= -1.0E-3 
 zmconv_ke		=  1.0E-6 
 zmconv_mx_bot_lyr_adj		= 0       
 zmconv_tau		=  3600
 zmconv_tiedke_add		= 0.5D0   
 zmconv_tp_fac		= 0.D0 
 zmconv_trigdcape_ull		= .false. 
/
