2022-07-27 16:05:15: xmlchange success <command> ./xmlchange DEBUG=FALSE,DOUT_S=FALSE,STOP_OPTION=ndays,STOP_N=10  </command>
 ---------------------------------------------------
2022-07-27 16:05:15: xmlchange success <command> ./xmlchange --append --file env_build.xml --id CAM_CONFIG_OPTS --val -cldera_sai_trcs -verbose  </command>
 ---------------------------------------------------
2022-07-27 16:05:15: xmlchange success <command> ./xmlchange JOB_WALLCLOCK_TIME=00:30:00  </command>
 ---------------------------------------------------
2022-07-27 16:05:16: xmlchange success <command> ./xmlchange SAVE_TIMING=TRUE  </command>
 ---------------------------------------------------
2022-07-27 16:05:16: xmlchange success <command> ./xmlchange JOB_QUEUE=debug  </command>
 ---------------------------------------------------
2022-07-27 16:05:16: case.setup starting 
 ---------------------------------------------------
2022-07-27 16:06:31: case.setup success 
 ---------------------------------------------------
2022-07-27 16:06:31: build.clean starting 
 ---------------------------------------------------
2022-07-27 16:06:38: build.clean success 
 ---------------------------------------------------
2022-07-27 16:06:44: case.submit starting 
 ---------------------------------------------------
2022-07-27 16:06:44: case.submit error 
ERROR: Build complete is not True please rebuild the model by calling case.build
 ---------------------------------------------------
